 &NAETLDIAG
 /
 &NAMACV
 /
 &NAMARG
   LELAM=.TRUE.,
   NCONF=131,
   LECMWF=.FALSE.,
   CNMEXP='OOPS',
   LSLAG=.TRUE.,
   NSUPERSEDE=1,
 /
 &NAMCFU
 /
 &NAMCT0
   LFDBOP=.FALSE.,
   LOBS=.TRUE.,
   LSIMOB=.FALSE.,
   NFPOS=0,
   NSPPR=1,
   NCNTVAR=2,
   NHISTS(0)=1,
   NHISTS(1)=1,
   NFRHIS=10000,
   NPOSTS(0)=1,
   NPOSTS(1)=0,
   NFRPOS=10000,
   NGDITS(0)=1,
   NGDITS(1)=1,
   NFRGDI=10000,
   NSDITS(0)=0,
   NSDITS(1)=0,
   NFRSDI=10000,
   LSCREEN_OPENMP=.FALSE.,
   LSPRT=.FALSE.,
   L_OOPS=.TRUE.,
 /
 &NAMCT1
   LRFILAF=.FALSE.,
 /
 &NAMCVER
 /
 &NAMDYN
   SITR=270.,
   SIPR=100000.,
 /
 &NAMDYNA
 /
 &NAMDYNCORE
 /
 &NAMENKF
 /
 &NAMFPC
 /
 &NAMINI
 /
 &NAMMCUF
 /
 &NAMOPH
 /
 &NAMPAR0
   NPROC=16,
   NOUTPUT=1,
   NPRGPNS=16,
   NPRGPEW=1,
   NPRTRW=16,
   NPRTRV=1,
   LMPOFF=.FALSE.,
   MP_TYPE=2,
   MBX_SIZE=2048000000,
 /
 &NAMPAR1
   LSPLIT=.FALSE.,
   NSTRIN=16,
   NSTROUT=8,
   NCOMBFLEN=1800000,
 /
 &NAMPHMSE
 /
 &NAMPHYDS
 /
 &NAMPPC
 /
 &NAMPPVI
 /
 &NAMRINC
 /
 &NAMSCEN
 /
 &NAMSENS
 /
 &NAMTRANS0
 /
 &NAMVAR
   LBGOBS=.FALSE.,
   LTEST=.FALSE.,
   NITER=50,
   NSIMU=60,
   NGRATS(0)=1,
   NGRATS(1)=1,
   NFRANA=10000,
   LJC=.FALSE.,
   NUPTRA=0,
   RCVGE=0.001,
   L_CHECK_CONVERGENCE=.FALSE.,
   LTOVSCV=.FALSE.,
   LREADGPTRAJ=.TRUE.,
   LTRAJGP=.TRUE.,
   LANOBS=.FALSE.,
   LINITCV=.TRUE.,
   LSTATMERR=.FALSE.,
   LVARBC=.TRUE.,
   LCONGRAD=.TRUE.,
   LCLDSINK=.FALSE.,
 /
 &NAMVARBC
 /
 &NAMVARBC_AIREP
   LBC_ACARS=.FALSE.,
   LBC_AIRCT=.FALSE.,
   LBC_AIREP=.FALSE.,
   LBC_AMDAR=.FALSE.,
   LBC_CODAR=.FALSE.,
   LBC_COLBA=.FALSE.,
 /
 &NAMVARBC_ALLSKY
 /
 &NAMVARBC_GBRAD
 /
 &NAMVARBC_RAD
   YCONFIG(3,3)%NCSTART=0,
   LCLD_AIRS=.TRUE.,
 /
 &NAMVARBC_RSONDE
   LBC_RSONDE=.FALSE.,
 /
 &NAMVARBC_SFCOBS
   LBC_SFCOBS_APD=.TRUE.,
 /
 &NAMVARBC_TCWV
 /
 &NAMVARBC_TO3
 /
 &NAMVRTL
   L131TL=.TRUE.,
   LOBSTL=.TRUE.,
 /
 &NAMVWRK
 /
 &NAMXFU
 /
 &NAM_DISTRIBUTED_VECTORS
 /
 &NEMCT0
 /
 &NEMELBC0A
   NBICOP=2,
   NBICOT=2,
   NBICOU=2,
 /
