 &NAEPHLI
 /
 &NAEPHY
 /
 &NAERAD
 /
 &NAMARPHY
 /
 &NAMCA
 /
 &NAMCAPE
 /
 &NAMCLDP
 /
 &NAMCOM
 /
 &NAMCUMF
 /
 &NAMCUMFS
 /
 &NAMCVMNH
 /
 &NAMDPHY
 /
 &NAMDVISI
 /
 &NAMDYN
   SITR=270.,
   SIPR=100000.,
 /
 &NAMFA
   NBITCS=-1,
   NSTRON=-1,
   NBITPG=-1,
   YFAL%NBITS=12,
   YFAI%NBITS=12,
   YFAR%NBITS=12,
   YFAS%NBITS=12,
   YFAL='CLOUD_WATER',
   YFAI='ICE_CRYSTAL',
   YFAS='SNOW',
   YFAR='RAIN',
   YFAG='GRAUPEL',
 /
 &NAMFPC
 /
 &NAMGFL
   YQ_NL%CNAME='HUMI.SPECIFI',
   YQ_NL%LGP=.TRUE.,
   YQ_NL%LSP=.FALSE.,
   YQ_NL%NREQIN=1,
   YL_NL%LGP=.FALSE.,
   YL_NL%LSP=.FALSE.,
   YL_NL%NREQIN=0,
   YL_NL%CNAME='CLOUD_WATER',
   YI_NL%LGP=.FALSE.,
   YI_NL%LSP=.FALSE.,
   YI_NL%NREQIN=0,
   YI_NL%CNAME='ICE_CRYSTAL',
   YS_NL%LGP=.FALSE.,
   YS_NL%LSP=.FALSE.,
   YS_NL%NREQIN=0,
   YS_NL%CNAME='SNOW',
   YR_NL%LGP=.FALSE.,
   YR_NL%LSP=.FALSE.,
   YR_NL%NREQIN=0,
   YR_NL%CNAME='RAIN',
   YG_NL%LGP=.FALSE.,
   YG_NL%LSP=.FALSE.,
   YG_NL%NREQIN=0,
   YG_NL%CNAME='GRAUPEL',
   YCPF_NL%LGP=.FALSE.,
 /
 &NAMGRIB
 /
 &NAMGWD
 /
 &NAMGWWMS
 /
 &NAMMCC
 /
 &NAMMETHOX
 /
 &NAMMTS
 /
 &NAMNORGWD
 /
 &NAMPARAR
 /
 &NAMPHY
   LVGSN=.TRUE.,
   LO3ABC=.TRUE.,
   LAEROSEA=.TRUE.,
   LAEROLAN=.TRUE.,
   LAEROSOO=.TRUE.,
   LAERODES=.TRUE.,
   LBLVAR=.TRUE.,
   LNEBN=.FALSE.,
   LRAY=.FALSE.,
 /
 &NAMPHY0
   USURIC=0.175,
   USURICE=0.5,
   USURICL=1.,
   USURID=0.1,
   EDK=5.,
 /
 &NAMPHY1
 /
 &NAMPHY2
 /
 &NAMPHY3
 /
 &NAMPHYDS
 /
 &NAMRCOEF
 /
 &NAMRIP
   CSTOP='h0',
   TSTEP=60.,
 /
 &NAMSCM
 /
 &NAMSIMPHL
 /
 &NAMSPNG
 /
 &NAMSPP
 /
 &NAMSPSDT
 /
 &NAMSTOPH
 /
 &NAMTOPH
 /
 &NAMTRAJP
 /
 &NAMVAREPS
 /
 &NAMVDF
 /
 &NAMVDOZ
 /
 &NAPHLC
 /
 &NEMDYN
 /
