 &NAMCFU
 /
 &NAMFPC
 /
 &NAMJBCODES
 /
 &NAMJG
   CONFIG%L3DBGERR=.TRUE.,
   CONFIG%LCLMSFCE=.TRUE.,
   CONFIG%LCORCOSU=.FALSE.,
   CONFIG%LJB_NONLINEAR_BALANCE=.FALSE.,
   CONFIG%LJB_NONLINEAR_CVHUM=.FALSE.,
   CONFIG%LJB_NONLINEAR_CVO3=.FALSE.,
   CONFIG%LJB_NONLINEAR_BALANCE_RELAX=.TRUE.,
   CONFIG%LJB_OMEGA_BALANCE_RELAX=.TRUE.,
   CONFIG%ELC=300000.,
   CONFIG%LJBBALBETA=.FALSE.,
   CONFIG%LSPFCE=.TRUE.,
   CONFIG%LSBQ_STRATOLOW=.TRUE.,
   CONFIG%LJB_OMEGA_BALANCE=.FALSE.,
   CONFIG%LRDQERR=.FALSE.,
   CONFIG%LREDNMCQ=.FALSE.,
   CONFIG%LSBLATLONG=.FALSE.,
   CONFIG%REDNMC=0.5,
 /
 &NAMMCUF
 /
 &NAMPHYDS
 /
 &NAMWAVELETJB
 /
 &NAMXFU
 /
