 &NAMRGRI
 /
 &NAMDIM
   NPROMA=-50,
 /
 &NAMGEM
 /
 &NAMVV0
 /
 &NAMVV1
 /
 &NAMTRANS
 /
 &NAMTRANS0
 /
 &NAMSTA
 /
 &NEMDIM
 /
 &NEMGEO
 /
 &NEMDYN
 /

