&NAMOOPSWRITE
  LWRSPEC=.TRUE.
  LWRSPECA_GP=.FALSE.
  LWRSPECA_GP_UV=.FALSE.
  LINC=.TRUE.
  CDMEXP='BG__'
/
