 &NAMCOSJO
   LTC=.FALSE.,
   NOTVAR(1,1)=0,0,-1,-1,0,0,0,0,-1,-1,0,-1,-1,-1,-1,-1,-1,-1,-1,-1,-1,-1,-1,-1,-1,
   NOTVAR(1,2)=0,0,-1,-1,-1,-1,0,-1,-1,-1,-1,-1,-1,-1,-1,-1,-1,-1,-1,-1,-1,-1,-1,-1,-1,
   NOTVAR(1,3)=0,0,-1,-1,-1,-1,-1,-1,-1,-1,-1,-1,-1,-1,-1,-1,-1,-1,-1,-1,-1,-1,-1,-1,-1,
   NOTVAR(1,4)=0,0,-1,-1,-1,-1,-1,0,-1,-1,-1,-1,-1,-1,-1,-1,-1,-1,-1,-1,-1,-1,-1,-1,-1,
   NOTVAR(1,5)=0,0,-1,-1,-1,-1,0,-1,-1,-1,-1,-1,-1,-1,-1,-1,-1,-1,0,-1,-1,-1,-1,-1,-1,
   NOTVAR(1,6)=0,0,-1,-1,-1,-1,-1,-1,-1,-1,-1,-1,-1,-1,-1,-1,-1,-1,-1,-1,-1,-1,-1,-1,-1,
   NOTVAR(1,7)=-1,-1,-1,-1,-1,-1,-1,-1,-1,-1,-1,-1,0,-1,-1,-1,-1,-1,-1,-1,-1,-1,-1,-1,-1,
   NOTVAR(1,8)=-1,-1,-1,-1,-1,-1,-1,-1,-1,-1,-1,-1,-1,-1,-1,-1,-1,-1,-1,-1,-1,-1,-1,-1,-1,
   NOTVAR(1,9)=0,0,-1,-1,-1,-1,-1,-1,-1,-1,-1,-1,-1,-1,-1,-1,-1,-1,-1,-1,-1,-1,-1,-1,-1,
   NOTVAR(1,10)=-1,-1,-1,-1,-1,-1,-1,-1,-1,-1,-1,-1,-1,-1,-1,-1,-1,-1,-1,-1,-1,-1,-1,-1,-1,
   NOTVAR(1,13)=-1,-1,-1,-1,0,-1,0,0,-1,-1,-1,-1,-1,-1,-1,-1,-1,-1,-1,-1,-1,-1,-1,-1,-1,-1,0,0,0,0,0,0,0,0,0,0,0,0,0,0,0,0,0,0,
 /
 &NAMDIMO
 /
 &NAMMKODB
 /
 &NAMMWAVE
 /
 &NAMNPROF
 /
 &NAMOBS
   LCAPACH=.FALSE.,
   LCACHMT=.TRUE.,
   LMKCMARPL=.FALSE.,
   L_F_SCR_WORK_TS=.FALSE.,
   LSAATOPZTD=.TRUE.,
 /
 &NAMSATS
   MEMIS_SW=1,
   LCO2_DIAG_AIRS=.FALSE.,
   LCO2_DIAG_IASI=.FALSE.,
   LPARTIAL_COEF_FILES=.TRUE.,
 /
 &NAMSCC
 /
